LAMMPS (22 Jul 2025 - Update 1)
Loaded 1 plugins from C:\Users\Palash\AppData\Local\LAMMPS 64-bit 22Jul2025-MSMPI with Python\plugins
# Flexible granular chain simulation in LAMMPS

units       si
atom_style hybrid sphere molecular
# sphere
# atom-ID atom-type diameter density x y z
# bond
# atom-ID molecule-ID atom-type x y z
# hybrid sphere molecular
# atom-ID atom-type x y z molecule-ID diameter density
# atom_modify	map array
boundary    f f f

special_bonds fene

# Read the atom and bond data from the data file.
read_data chain.data
Reading data file ...
  orthogonal box = (-0.02 -0.01 0) to (0.02 0.01 0.08)
  reading atoms ...
  11 atoms
  reading velocities ...
  11 velocities
  scanning bonds ...
  scanning angles ...
  orthogonal box = (-0.02 -0.01 0) to (0.02 0.01 0.08)
  reading bonds ...
  10 bonds
  reading angles ...
  9 angles
Finding 1-2 1-3 1-4 neighbors ...
     2 = max # of 1-2 neighbors
     2 = max # of special neighbors

# Ensure spherical properties are consistent (overrides data if needed)
set type 1 diameter 0.002
Setting atom values ...
  11 settings made for diameter
set type 1 density 8500.0
Setting atom values ...
  11 settings made for density
velocity all set 0.0 0.0 0.0

# Optional: create a unique output directory per run (portable on Windows PowerShell)
# shell powershell -NoProfile -Command "if (!(Test-Path 'post')) {New-Item -ItemType Directory -Path 'post' ^| Out-Null}; $counterPath = 'post/run_counter.txt'; if (!(Test-Path $counterPath)) {Set-Content -Path $counterPath -Value '0'}; $count = [int](Get-Content -Path $counterPath); $next = $count + 1; Set-Content -Path $counterPath -Value $next; $outdir = Join-Path 'post' ('run_{0:D4}' -f $next); New-Item -ItemType Directory -Path $outdir -Force ^| Out-Null; $forward = $outdir -replace '\\','/'; Set-Content -Path 'post/current_run.txt' -Value $forward; Set-Content -Path 'post/current_run.lmp' -Value ('variable outdir string ' + $forward);"
# include post/current_run.lmp

# Ensure a predictable output directory and set outdir
shell if not exist post mkdir post
shell if not exist post\current mkdir post\current
variable outdir string post/current

# Apply gravity
fix grav all gravity 9.81 vector 0 0 -1
# fix 3 all wall/gran granular hertz/material 1e5 1e3 0.3 #     tangential mindlin NULL 1.0 0.5 zplane 0 NULL

fix floor all wall/gran granular hertz/material 2.0e11 0.3 5e4     tangential linear_history 300.0 1.0 0.1     rolling sds 200.0 100.0 0.1     twisting marshall     zplane 0.005 NULL
fix ceil all wall/gran granular hertz/material 2.0e11 0.3 5e4     tangential linear_history 300.0 1.0 0.1     rolling sds 200.0 100.0 0.1     twisting marshall     zplane 0.08 NULL

comm_modify    vel yes

pair_style      granular
pair_coeff  1 1 hertz/material 2.0e11 0.30 5.0e4             tangential linear_history 8.0e10 5.0e3 0.40             rolling sds 1.0e4 5.0e3 0.30             twisting marshall

# pair_coeff 1 1 hertz/material 1 1 1
# fix props all property/global youngsModulus peratomtype 1 2.0e11
# fix props all property/global poissonsRatio peratomtype 1 0.30
# fix props all property/global coefficientRestitution peratomtypepair 1 1 5.0e4
# Set contact properties directly through pair coefficients (no property/global fixes available)

# Connect beads with a custom tabulated bond: no force between 2 mm and 3 mm,
# steep quadratic walls outside that window.
bond_style table spline 200
bond_coeff 1 bond_window.table WIN

# Define the angle style as Harmonic. This will act as our angular infinite well.
# The potential is given by E=K(θ−θ0)^2 where θ0 is the equilibrium angle.
# We will set θ0 to your desired limit of 38 degrees.
angle_style table spline 2001      # use spline and match N_points in the file (2001 here)
angle_coeff 1 bond_angle.table ANGLE_WELL

# Use the standard NVE integrator for non-rigid bodies.
fix integr all nve/sphere

# Set up neighbor list parameters (wider skin and higher per-atom quota prevent overflow)
neighbor 0.08 bin
neigh_modify delay 0 every 1 check yes one 10000

# Set a conservative timestep for the stiff bonded chain.
timestep 2.5e-8

# === 4. OUTPUTS & RUN ===
# Output thermodynamic data every 1000 timesteps.
thermo 1000
thermo_style custom step pe ke etotal press

# Output a dump file of the atom coordinates for visualization (e.g., in ParaView)
dump 1 all custom 10000 post/current/chain_*.dump id type x y z vx vy vz diameter
dump_modify 1 sort id

variable outdir delete
# unfix floor
# fix floor all wall/reflect zlo 0.005
# run 4800000
# unfix floor
# Run the simulation for 100000 timesteps = 1.0 s.
run 4800000
Generated 0 of 0 mixed pair_coeff terms from geometric mixing rule
Step         PotEng         KinEng         TotEng         Press
0   68080.5        0              68080.5       -7.4505806e-05
Averages over the last 2401 of 4801 rows, steps 2400000 to 4800000:
PotEng KinEng TotEng Press
68080.5 0.00015831 68080.5 1.64906
Loop time of 15.503 on 4 procs for 4800000 steps with 11 atoms
